data/MiniGrid/MiniGrid.m
% This file was generated by Sparlectra exportMatPower.jl
function mpc = MiniGrid
%% MATPOWER Case Format : Version 2
mpc.version = '2';
%%-----  Power Flow Data  -----%%
%% system MVA base
mpc.baseMVA = 350.0;
%% bus data
mpc.bus = [
%bus	type	Pd	Qd	Gs	Bs	area	Vm	Va	baseKV	zone	Vmax	Vmin
1	1	0.0	0.0	0.0	0.0	1	1.0	0.0	380.0	1	1.1	0.9; %Bus: 1_Node-1 (ID: _adee76cd-b2b9-48ac-8fd4-0d205a435f59 kIdx: 1)
2	1	0.0	0.0	0.0	0.0	1	1.0	0.0	110.0	1	1.1	0.9; %Bus: 3_Node-5 (ID: _c8726716-e182-4373-b83e-8f60070078cb kIdx: 2)
3	1	0.0	0.0	0.0	0.0	1	1.0	0.0	110.0	1	1.1	0.9; %Bus: 4_Node-11 (ID: _c0adab49-d445-4609-a1a3-ebe4ef297cc8 kIdx: 3)
4	1	0.0	0.0	0.0	0.0	1	1.0	0.0	110.0	1	1.1	0.9; %Bus: 2_Node-3 (ID: _b3d3b4ad-02af-4490-8748-70f6c9a23734 kIdx: 4)
5	1	0.0	0.0	0.0	0.0	1	1.0	0.0	110.0	1	1.1	0.9; %Bus: 5_Node-6 (ID: _37edd845-456f-4c3e-98d5-19af0c1cef1e kIdx: 5)
6	1	0.0	0.0	0.0	0.0	1	1.0	0.0	30.0	1	1.1	0.9; %Bus: 8_Node-2 (ID: _87c0d153-e308-4b2b-92a4-4fad53ab1ff9 kIdx: 6)
7	1	0.0	0.0	0.0	0.0	1	1.0	0.0	30.0	1	1.1	0.9; %Bus: H_Node-4 (ID: _03163ede-7eec-457f-8641-365982227d7c kIdx: 7)
8	2	0.0	0.0	0.0	0.0	1	1.0	0.0	21.0	1	1.1	0.9; %Bus: HG1_Node-10 (ID: _7f5515b2-ca6b-45af-93ee-f196686f0c66 kIdx: 8)
9	1	-9.0	-5.0	0.0	0.0	1	1.0	0.0	10.0	1	1.1	0.9; %Bus: 7_Node-8 (ID: _cd84fa40-ef63-422d-8ee0-d0a0f806719e kIdx: 9)
10	3	0.0	0.0	0.0	0.0	1	1.0	0.0	10.0	1	1.1	0.9; %Bus: HG2_Node-9 (slack) (ID: _c7eda3d2-e92d-4935-8166-5e045d3de045 kIdx: 10)
11	2	0.0	0.0	0.0	0.0	1	1.0	0.0	10.0	1	1.1	0.9; %Bus: 6_Node-7 (ID: _764e0b8a-f2af-4092-b6aa-b4a19e55db98 kIdx: 11)
12	1	0.0	0.0	0.0	0.0	1	1.0	0.0	380.0	1	1.1	0.9; %Bus: aux_#12 (ID: bb45fc8e-06dd-4f26-b67e-d2dd68a6a18a kIdx: 12)
13	1	0.0	0.0	0.0	0.0	1	1.0	0.0	380.0	1	1.1	0.9; %Bus: aux_#13 (ID: 3baf64ee-438c-44b4-9b8e-903dad363a16 kIdx: 13)
];
%% generator data
mpc.gen = [
%bus	Pg	Qg	Qmax	Qmin	Vg	mBase	status	Pmax	Pmin	Pc1	Pc2	Qc1min	Qc1max	Qc2min	Qc2max	ramp_agc	ramp_10	ramp_30	ramp_q	apf
1	0.0	0.0	600.0	-600.0	1.0	350.0	1	800.0	-800.0	0.0	0.0	0.0	0.0	0.0	0.0	0.0	0.0	0.0	0.0	0.0; %Gen: ExternalNetworkInjection_Q1 (ID: _adee76cd-b2b9-48ac-8fd4-0d205a435f59)
5	0.0	0.0	66.0	-66.0	1.0	350.0	1	88.0	-88.0	0.0	0.0	0.0	0.0	0.0	0.0	0.0	0.0	0.0	0.0	0.0; %Gen: ExternalNetworkInjection_Q2 (ID: _37edd845-456f-4c3e-98d5-19af0c1cef1e)
8	-5.0	-2.0	79.0	-79.0	1.0	150.0	1	0	0	0.0	0.0	0.0	0.0	0.0	0.0	0.0	0.0	0.0	0.0	0.0; %Gen: SynchronousMachine_G1 (ID: _7f5515b2-ca6b-45af-93ee-f196686f0c66)
11	-4.0	-3.0	6.0	-6.0	1.0	10.0	1	0	0	0.0	0.0	0.0	0.0	0.0	0.0	0.0	0.0	0.0	0.0	0.0; %Gen: SynchronousMachine_G3 (ID: _764e0b8a-f2af-4092-b6aa-b4a19e55db98)
10	-0.0	-0.0	43.6	-43.6	1.0	100.0	1	0	0	0.0	0.0	0.0	0.0	0.0	0.0	0.0	0.0	0.0	0.0	0.0; %Gen: SynchronousMachine_G2 (ID: _c7eda3d2-e92d-4935-8166-5e045d3de045)
];
%% branch data
mpc.branch = [
%fbus	tbus	r	x	b	rateA	rateB	rateC	ratio	angle	status	angmin	angmax
2	3	0.03471074	0.11280992	0.0	0	0	0	0.0	0.0	1	-360	360; %Branch: Name: L2, Typ: LineC (ID: _efdd7f46-67e6-46e3-9dcd-a3b6f8c613a4)
4	2	0.06942149	0.22561983	0.0	0	0	0	0.0	0.0	1	-360	360; %Branch: Name: L1, Typ: LineC (ID: _d5d1cc4a-6297-4386-b6ce-16dc26f15feb)
4	5	0.01735537	0.05640496	0.0	0	0	0	0.0	0.0	1	-360	360; %Branch: Name: L3_a, Typ: LineC (ID: _35df6abe-3087-4c27-a90a-12b5065333f3)
4	5	0.01735537	0.05640496	0.0	0	0	0	0.0	0.0	1	-360	360; %Branch: (parallel) Name: L3_b, Typ: LineC (ID: _05597934-b248-491e-803a-68ce6290f502)
5	2	0.0277686	0.1122314	0.0	0	0	0	0.0	0.0	1	-360	360; %Branch: Name: L4, Typ: LineC (ID: _e95a6228-ceac-4f0a-8b52-d35367b364dc)
5	3	0.05206612	0.16747934	0.0	0	0	0	0.0	0.0	1	-360	360; %Branch: Name: L5, Typ: LineC (ID: _1e7f52a9-21d0-4ebe-9a8a-b29281d5bfc9)
11	9	0.287	0.301	0.0	0	0	0	0.0	0.0	1	-360	360; %Branch: Name: L6, Typ: LineC (ID: _56757c2b-550e-4843-886a-ed193f6eb21e)
1	12	0.00144044	0.23269934	0.0	0	0	0	1.0	0.0	1	-360	360; %Branch: Name: aux_#12, Typ: AuxBus (ID: bb45fc8e-06dd-4f26-b67e-d2dd68a6a18a)
12	4	0.00154711	-3.243e-5	0.0	0	0	0	1.0	0.0	1	-360	360; %Branch: Name: aux_#12, Typ: AuxBus (ID: bb45fc8e-06dd-4f26-b67e-d2dd68a6a18a)
12	6	0.0099	0.48989924	0.0	0	0	0	1.0	0.0	1	-360	360; %Branch: Name: aux_#12, Typ: AuxBus (ID: bb45fc8e-06dd-4f26-b67e-d2dd68a6a18a)
1	13	0.00144044	0.23269934	0.0	0	0	0	1.0	0.0	1	-360	360; %Branch: Name: aux_#13, Typ: AuxBus (ID: 3baf64ee-438c-44b4-9b8e-903dad363a16)
13	4	0.00154711	-3.243e-5	0.0	0	0	0	1.0	0.0	1	-360	360; %Branch: Name: aux_#13, Typ: AuxBus (ID: 3baf64ee-438c-44b4-9b8e-903dad363a16)
13	7	0.0099	0.48989928	0.0	0	0	0	1.0	0.0	1	-360	360; %Branch: Name: aux_#13, Typ: AuxBus (ID: 3baf64ee-438c-44b4-9b8e-903dad363a16)
2	10	0.02082645	0.49940064	0.0	0	0	0	0.9625	0.0	1	-360	360; %Branch: Name: T2, Typ: Trafo (ID: _f1e72854-ec35-46e9-b614-27db354e8dbb)
3	8	0.01166667	0.37315079	0.0	0	0	0	0.9565217391304348	0.0	1	-360	360; %Branch: Name: T1, Typ: Trafo (ID: _813365c3-5be7-4ef0-a0a7-abd1ae6dc174)
5	11	0.06072083	1.45603471	0.0	0	0	0	1.0043478260869565	0.0	1	-360	360; %Branch: Name: T5, Typ: Trafo (ID: _ceb5d06a-a7ff-4102-a620-7f3ea5fb4a51)
5	11	0.06072083	1.45603471	0.0	0	0	0	1.0043478260869565	0.0	1	-360	360; %Branch: (parallel) Name: T6, Typ: Trafo (ID: _6c89588b-3df5-4120-88e5-26164afb43e9)
];
